<?xml version="1.0" encoding="UTF-8"?>

<!-- generated on 2025-02-18 14:56:04.740808 by osmWebWizard.py v1_22_0+0002-63e50f52594
<configuration>
    <net-file value="C:\Users\VX47TT\Sumo\2025-02-18-14-55-30\osm.net.xml.gz"/>
    <output-trip-file value="C:\Users\VX47TT\Sumo\2025-02-18-14-55-30\osm.passenger.trips.xml"/>
    <route-file value="C:\Users\VX47TT\Sumo\2025-02-18-14-55-30\osm.passenger.rou.xml"/>
    <prefix value="veh"/>
    <trip-attributes value="departLane=&quot;best&quot;"/>
    <fringe-start-attributes value="departSpeed=&quot;max&quot;"/>
    <vehicle-class value="passenger"/>
    <lanes value="True"/>
    <fringe-factor value="5"/>
    <allow-fringe.min-length value="1000.0"/>
    <via-edge-types value="highway.motorway,highway.motorway_link,highway.trunk_link,highway.primary_link,highway.secondary_link,highway.tertiary_link"/>
    <min-distance value="300.0"/>
    <min-distance.fringe value="10.0"/>
    <remove-loops value="True"/>
    <validate value="True"/>
    <insertion-density value="12.0"/>
</configuration>
-->

<!-- generated on 2025-02-18 14:56:02 by Eclipse SUMO duarouter Version 1.22.0
<duarouterConfiguration xmlns:xsi="http://www.w3.org/2001/XMLSchema-instance" xsi:noNamespaceSchemaLocation="http://sumo.dlr.de/xsd/duarouterConfiguration.xsd">

    <input>
        <net-file value="C:\Users\VX47TT\Sumo\2025-02-18-14-55-30\osm.net.xml.gz"/>
        <route-files value="C:\Users\VX47TT\Sumo\2025-02-18-14-55-30\osm.passenger.trips.xml"/>
    </input>

    <output>
        <output-file value="C:\Users\VX47TT\Sumo\2025-02-18-14-55-30\osm.passenger.trips.xml.tmp"/>
        <alternatives-output value="NUL"/>
        <write-trips value="true"/>
    </output>

    <processing>
        <remove-loops value="true"/>
    </processing>

    <time>
        <begin value="0.0"/>
        <end value="3600.0"/>
    </time>

    <report>
        <no-warnings value="true"/>
        <ignore-errors value="true"/>
        <no-step-log value="true"/>
    </report>

</duarouterConfiguration>
-->

<routes xmlns:xsi="http://www.w3.org/2001/XMLSchema-instance" xsi:noNamespaceSchemaLocation="http://sumo.dlr.de/xsd/routes_file.xsd">
    <vType id="veh_passenger" vClass="passenger"/>
    <trip id="veh0" type="veh_passenger" depart="0.00" departLane="best" from="-7152035#6" to="-26223710"/>
    <trip id="veh1" type="veh_passenger" depart="1.45" departLane="best" from="-7154528#11" to="-7154295#0"/>
    <trip id="veh2" type="veh_passenger" depart="2.90" departLane="best" from="7154129#0" to="7153821#2"/>
    <trip id="veh3" type="veh_passenger" depart="4.34" departLane="best" from="7155142#0" to="-576512171#2"/>
    <trip id="veh4" type="veh_passenger" depart="5.79" departLane="best" from="-7155539#2" to="-268560111#1"/>
    <trip id="veh5" type="veh_passenger" depart="7.24" departLane="best" from="24629783#3" to="-7154129#1"/>
    <trip id="veh6" type="veh_passenger" depart="8.69" departLane="best" from="7153615#0" to="280027596#0"/>
    <trip id="veh7" type="veh_passenger" depart="10.14" departLane="best" from="-7154148" to="535049803#1"/>
    <trip id="veh8" type="veh_passenger" depart="11.58" departLane="best" from="-7154542#1" to="-121490204#1"/>
    <trip id="veh9" type="veh_passenger" depart="13.03" departLane="best" from="7154534#1" to="7153948#4"/>
    <trip id="veh10" type="veh_passenger" depart="14.48" departLane="best" from="-7155079#2" to="-7153863"/>
    <trip id="veh11" type="veh_passenger" depart="15.93" departLane="best" departSpeed="max" from="7155500#0" to="-7155162#3"/>
    <trip id="veh12" type="veh_passenger" depart="17.37" departLane="best" departSpeed="max" from="-583055592#6" to="70085006#2"/>
    <trip id="veh13" type="veh_passenger" depart="18.82" departLane="best" from="7154790" to="583055592#3"/>
    <trip id="veh14" type="veh_passenger" depart="20.27" departLane="best" from="7154535#4" to="7154112"/>
    <trip id="veh15" type="veh_passenger" depart="21.72" departLane="best" from="278869174#0" to="-7155545#11"/>
    <trip id="veh17" type="veh_passenger" depart="24.61" departLane="best" from="7154702#0" to="7152012#0"/>
    <trip id="veh18" type="veh_passenger" depart="26.06" departLane="best" from="-7155041#17" to="515055478#0"/>
    <trip id="veh19" type="veh_passenger" depart="27.51" departLane="best" from="-7153921#0" to="-27823828#0"/>
    <trip id="veh20" type="veh_passenger" depart="28.96" departLane="best" from="7154209#1" to="7154773#0"/>
    <trip id="veh21" type="veh_passenger" depart="30.41" departLane="best" from="449171193#2" to="-7154377"/>
    <trip id="veh22" type="veh_passenger" depart="31.85" departLane="best" from="-70085002#0" to="7154726#8"/>
    <trip id="veh23" type="veh_passenger" depart="33.30" departLane="best" from="7152014#2" to="7155331#1"/>
    <trip id="veh24" type="veh_passenger" depart="34.75" departLane="best" departSpeed="max" from="-7155202#3" to="-7154188#2"/>
    <trip id="veh25" type="veh_passenger" depart="36.20" departLane="best" departSpeed="max" from="-7154486" to="7155325#0"/>
    <trip id="veh26" type="veh_passenger" depart="37.64" departLane="best" from="-7153608#2" to="-689657918#0"/>
    <trip id="veh27" type="veh_passenger" depart="39.09" departLane="best" from="-7153877#0" to="-7154302#5"/>
    <trip id="veh28" type="veh_passenger" depart="40.54" departLane="best" from="-7153849#1" to="-7155443#1"/>
    <trip id="veh29" type="veh_passenger" depart="41.99" departLane="best" from="757763399#0" to="7153631#1"/>
    <trip id="veh30" type="veh_passenger" depart="43.44" departLane="best" from="280019934#0" to="7153865"/>
    <trip id="veh31" type="veh_passenger" depart="44.88" departLane="best" from="7154749#1" to="7154364#2"/>
    <trip id="veh32" type="veh_passenger" depart="46.33" departLane="best" from="-7154229#1" to="-27360947#0"/>
    <trip id="veh33" type="veh_passenger" depart="47.78" departLane="best" from="-7154102" to="7155357"/>
    <trip id="veh34" type="veh_passenger" depart="49.23" departLane="best" from="7153632#2" to="-7155508"/>
    <trip id="veh35" type="veh_passenger" depart="50.68" departLane="best" from="7155250#0" to="22634192"/>
    <trip id="veh36" type="veh_passenger" depart="52.12" departLane="best" from="-7154474" to="-7154484#0"/>
    <trip id="veh37" type="veh_passenger" depart="53.57" departLane="best" from="280027599#0" to="-7154552#2"/>
    <trip id="veh38" type="veh_passenger" depart="55.02" departLane="best" departSpeed="max" from="415590882" to="7155116#1"/>
    <trip id="veh39" type="veh_passenger" depart="56.47" departLane="best" from="-7155383" to="-7154271#1"/>
    <trip id="veh40" type="veh_passenger" depart="57.92" departLane="best" departSpeed="max" from="951801361" to="277812959"/>
    <trip id="veh41" type="veh_passenger" depart="59.36" departLane="best" departSpeed="max" from="-583055591#1" to="-27823836#0"/>
    <trip id="veh42" type="veh_passenger" depart="60.81" departLane="best" from="7154456#3" to="926261656#1"/>
    <trip id="veh43" type="veh_passenger" depart="62.26" departLane="best" from="359894014" to="-7155449"/>
    <trip id="veh44" type="veh_passenger" depart="63.71" departLane="best" from="926398063#0" to="280006231"/>
    <trip id="veh45" type="veh_passenger" depart="65.15" departLane="best" from="7155545#16" to="7154843"/>
    <trip id="veh46" type="veh_passenger" depart="66.60" departLane="best" departSpeed="max" from="-126103836#1" to="7154068#3"/>
    <trip id="veh47" type="veh_passenger" depart="68.05" departLane="best" departSpeed="max" from="7153795#0" to="-280015815#1"/>
    <trip id="veh48" type="veh_passenger" depart="69.50" departLane="best" departSpeed="max" from="-7154486" to="-7153639"/>
    <trip id="veh49" type="veh_passenger" depart="70.95" departLane="best" from="-7152035#7" to="1168364992"/>
    <trip id="veh50" type="veh_passenger" depart="72.39" departLane="best" from="1168366234" to="7155447#0"/>
    <trip id="veh51" type="veh_passenger" depart="73.84" departLane="best" from="7155083#1" to="-7154592#0"/>
    <trip id="veh52" type="veh_passenger" depart="75.29" departLane="best" from="274144392" to="-7153993#3"/>
    <trip id="veh53" type="veh_passenger" depart="76.74" departLane="best" from="-7155240#3" to="7155041#15"/>
    <trip id="veh54" type="veh_passenger" depart="78.19" departLane="best" from="-7154695#2" to="7153627#0"/>
    <trip id="veh55" type="veh_passenger" depart="79.63" departLane="best" from="535049804" to="-7153844#1"/>
    <trip id="veh56" type="veh_passenger" depart="81.08" departLane="best" departSpeed="max" from="7154295#0" to="280019925"/>
    <trip id="veh57" type="veh_passenger" depart="82.53" departLane="best" from="-7154386#0" to="280007401#1"/>
    <trip id="veh58" type="veh_passenger" depart="83.98" departLane="best" from="-1038297850" to="-7155100#9"/>
    <trip id="veh59" type="veh_passenger" depart="85.42" departLane="best" departSpeed="max" from="-22634192" to="7155289#2"/>
    <trip id="veh60" type="veh_passenger" depart="86.87" departLane="best" from="7155093" to="7154665"/>
    <trip id="veh61" type="veh_passenger" depart="88.32" departLane="best" from="-7154728" to="280025233#0"/>
    <trip id="veh62" type="veh_passenger" depart="89.77" departLane="best" from="7155091#1" to="7155392#1"/>
    <trip id="veh63" type="veh_passenger" depart="91.22" departLane="best" from="-542362542#1" to="-27360943#6"/>
    <trip id="veh64" type="veh_passenger" depart="92.66" departLane="best" from="-390309315#1" to="7154287#1"/>
    <trip id="veh65" type="veh_passenger" depart="94.11" departLane="best" from="7154304#2" to="-7153693#2"/>
    <trip id="veh66" type="veh_passenger" depart="95.56" departLane="best" from="233517588#0" to="-280027608#0"/>
    <trip id="veh67" type="veh_passenger" depart="97.01" departLane="best" from="-7154483" to="7155041#3"/>
    <trip id="veh68" type="veh_passenger" depart="98.46" departLane="best" from="-7155540#2" to="-7154216#2"/>
    <trip id="veh69" type="veh_passenger" depart="99.90" departLane="best" from="-278870607" to="7154112"/>
    <trip id="veh70" type="veh_passenger" depart="101.35" departLane="best" departSpeed="max" from="-7154059#1" to="-7155075#0"/>
    <trip id="veh71" type="veh_passenger" depart="102.80" departLane="best" from="-926261656#2" to="-7153693#4"/>
    <trip id="veh72" type="veh_passenger" depart="104.25" departLane="best" from="-758142774" to="-27823828#1"/>
    <trip id="veh73" type="veh_passenger" depart="105.70" departLane="best" from="-7153614" to="-7154302#3"/>
    <trip id="veh74" type="veh_passenger" depart="107.14" departLane="best" from="-7155071#12" to="535048189"/>
    <trip id="veh75" type="veh_passenger" depart="108.59" departLane="best" from="7154229#8" to="-7154275#1"/>
    <trip id="veh76" type="veh_passenger" depart="110.04" departLane="best" from="390309319#2" to="7153601#1"/>
    <trip id="veh77" type="veh_passenger" depart="111.49" departLane="best" from="-7154229#0" to="7155151#3"/>
    <trip id="veh78" type="veh_passenger" depart="112.93" departLane="best" from="-7155038" to="415545033#0"/>
    <trip id="veh79" type="veh_passenger" depart="114.38" departLane="best" from="-7154270" to="7153787"/>
    <trip id="veh81" type="veh_passenger" depart="117.28" departLane="best" from="7155365#1" to="41767083#1"/>
    <trip id="veh82" type="veh_passenger" depart="118.73" departLane="best" from="209400705#0" to="7154416#0"/>
    <trip id="veh83" type="veh_passenger" depart="120.17" departLane="best" from="7154535#6" to="-7154073#0"/>
    <trip id="veh84" type="veh_passenger" depart="121.62" departLane="best" from="-689657919#0" to="1168362781"/>
    <trip id="veh85" type="veh_passenger" depart="123.07" departLane="best" from="7155540#4" to="-24405694"/>
    <trip id="veh86" type="veh_passenger" depart="124.52" departLane="best" from="7154081" to="7153811#2"/>
    <trip id="veh87" type="veh_passenger" depart="125.97" departLane="best" from="730280145#1" to="70523810"/>
    <trip id="veh88" type="veh_passenger" depart="127.41" departLane="best" departSpeed="max" from="-7155407" to="-7155172#1"/>
    <trip id="veh89" type="veh_passenger" depart="128.86" departLane="best" from="-7155041#17" to="-7154499#2"/>
    <trip id="veh90" type="veh_passenger" depart="130.31" departLane="best" from="7153991#2" to="126103838"/>
    <trip id="veh91" type="veh_passenger" depart="131.76" departLane="best" from="-7155539#2" to="-7154726#10"/>
    <trip id="veh92" type="veh_passenger" depart="133.20" departLane="best" from="-7154349#1" to="7155260#1"/>
    <trip id="veh93" type="veh_passenger" depart="134.65" departLane="best" from="-1038304107#0" to="7154846#1"/>
    <trip id="veh94" type="veh_passenger" depart="136.10" departLane="best" from="-280011157" to="278869176#2"/>
    <trip id="veh95" type="veh_passenger" depart="137.55" departLane="best" departSpeed="max" from="951801361" to="7154695#5"/>
    <trip id="veh96" type="veh_passenger" depart="139.00" departLane="best" from="7155544#2" to="7155280#1"/>
    <trip id="veh97" type="veh_passenger" depart="140.44" departLane="best" from="7154813#2" to="-7153906#2"/>
    <trip id="veh98" type="veh_passenger" depart="141.89" departLane="best" from="249582970#0" to="7154233"/>
    <trip id="veh99" type="veh_passenger" depart="143.34" departLane="best" from="-7155399#2" to="-280027597"/>
    <trip id="veh100" type="veh_passenger" depart="144.79" departLane="best" from="-7155260#1" to="7155644#1"/>
    <trip id="veh101" type="veh_passenger" depart="146.24" departLane="best" from="-7154484#0" to="7154416#0"/>
    <trip id="veh102" type="veh_passenger" depart="147.68" departLane="best" from="1168366248" to="-935175995"/>
    <trip id="veh103" type="veh_passenger" depart="149.13" departLane="best" from="-280019929" to="7154059#1"/>
    <trip id="veh104" type="veh_passenger" depart="150.58" departLane="best" departSpeed="max" from="-7153802" to="7154920"/>
    <trip id="veh105" type="veh_passenger" depart="152.03" departLane="best" from="7155544#0" to="535042123#0"/>
    <trip id="veh106" type="veh_passenger" depart="153.47" departLane="best" from="278880499#1" to="-7154216#0"/>
    <trip id="veh107" type="veh_passenger" depart="154.92" departLane="best" from="280015815#1" to="535046233#3"/>
    <trip id="veh108" type="veh_passenger" depart="156.37" departLane="best" from="-27515526#2" to="-7154768"/>
    <trip id="veh109" type="veh_passenger" depart="157.82" departLane="best" from="7153811#3" to="7155481#1"/>
    <trip id="veh110" type="veh_passenger" depart="159.27" departLane="best" from="-515055476#0" to="-7154046#0"/>
    <trip id="veh111" type="veh_passenger" depart="160.71" departLane="best" departSpeed="max" from="502872223" to="7153816"/>
    <trip id="veh112" type="veh_passenger" depart="162.16" departLane="best" from="-7154260#3" to="-7153693#1"/>
    <trip id="veh113" type="veh_passenger" depart="163.61" departLane="best" from="7155120#4" to="-7154474"/>
    <trip id="veh114" type="veh_passenger" depart="165.06" departLane="best" departSpeed="max" from="502872223" to="7152014#0"/>
    <trip id="veh115" type="veh_passenger" depart="166.51" departLane="best" from="-7155522#0" to="535046233#2"/>
    <trip id="veh116" type="veh_passenger" depart="167.95" departLane="best" from="7154315#1" to="-7155312#1"/>
    <trip id="veh117" type="veh_passenger" depart="169.40" departLane="best" from="7154078#0" to="7154040#1"/>
    <trip id="veh118" type="veh_passenger" depart="170.85" departLane="best" from="7154273#2" to="7155041#10"/>
    <trip id="veh119" type="veh_passenger" depart="172.30" departLane="best" from="7153738#1" to="7155041#11"/>
    <trip id="veh120" type="veh_passenger" depart="173.75" departLane="best" from="-7154773#3" to="7154247#1"/>
    <trip id="veh121" type="veh_passenger" depart="175.19" departLane="best" from="-392150670" to="22634192"/>
    <trip id="veh122" type="veh_passenger" depart="176.64" departLane="best" departSpeed="max" from="951801361" to="277812953#3"/>
    <trip id="veh123" type="veh_passenger" depart="178.09" departLane="best" departSpeed="max" from="-415545033#2" to="-7154229#6"/>
    <trip id="veh124" type="veh_passenger" depart="179.54" departLane="best" from="-7154484#0" to="7155303#1"/>
    <trip id="veh125" type="veh_passenger" depart="180.98" departLane="best" from="7155096#0" to="7155059"/>
    <trip id="veh126" type="veh_passenger" depart="182.43" departLane="best" departSpeed="max" from="-7155202#3" to="7153869#5"/>
    <trip id="veh127" type="veh_passenger" depart="183.88" departLane="best" from="-7154726#1" to="7153971"/>
    <trip id="veh128" type="veh_passenger" depart="185.33" departLane="best" from="535050831#0" to="743566265#1"/>
    <trip id="veh129" type="veh_passenger" depart="186.78" departLane="best" from="7153627#2" to="1239851564#0"/>
    <trip id="veh130" type="veh_passenger" depart="188.22" departLane="best" from="-7154599#1" to="-7155041#0"/>
    <trip id="veh131" type="veh_passenger" depart="189.67" departLane="best" from="7153693#4" to="7155336#3"/>
    <trip id="veh132" type="veh_passenger" depart="191.12" departLane="best" from="7152014#5" to="280029548"/>
    <trip id="veh133" type="veh_passenger" depart="192.57" departLane="best" from="-7154513#0" to="583055592#6"/>
    <trip id="veh134" type="veh_passenger" depart="194.02" departLane="best" from="7153999#0" to="7154148"/>
    <trip id="veh135" type="veh_passenger" depart="195.46" departLane="best" from="7152012#0" to="-7154598#0"/>
    <trip id="veh136" type="veh_passenger" depart="196.91" departLane="best" from="-257447099#2" to="7155151#3"/>
    <trip id="veh137" type="veh_passenger" depart="198.36" departLane="best" from="-7154775" to="-689657918#1"/>
    <trip id="veh138" type="veh_passenger" depart="199.81" departLane="best" from="7155540#4" to="-7154717"/>
    <trip id="veh139" type="veh_passenger" depart="201.25" departLane="best" from="-1116528019" to="-7154344#0"/>
    <trip id="veh140" type="veh_passenger" depart="202.70" departLane="best" from="7152016#2" to="-7154549#1"/>
    <trip id="veh141" type="veh_passenger" depart="204.15" departLane="best" from="-7154146#4" to="280027596#0"/>
    <trip id="veh142" type="veh_passenger" depart="205.60" departLane="best" from="7155545#5" to="-1329612685#0"/>
    <trip id="veh143" type="veh_passenger" depart="207.05" departLane="best" from="-415590890#2" to="7155077#0"/>
    <trip id="veh144" type="veh_passenger" depart="208.49" departLane="best" from="7155201" to="280027596#1"/>
    <trip id="veh145" type="veh_passenger" depart="209.94" departLane="best" from="7154726#13" to="-535046232"/>
    <trip id="veh146" type="veh_passenger" depart="211.39" departLane="best" from="-7153769#0" to="-7153686#1"/>
    <trip id="veh147" type="veh_passenger" depart="212.84" departLane="best" from="-7154743#10" to="7155120#1"/>
    <trip id="veh148" type="veh_passenger" depart="214.29" departLane="best" from="7154485#1" to="7154843"/>
    <trip id="veh149" type="veh_passenger" depart="215.73" departLane="best" from="7155169#1" to="-7154192"/>
    <trip id="veh150" type="veh_passenger" depart="217.18" departLane="best" from="7154347#5" to="-7152014#4"/>
    <trip id="veh151" type="veh_passenger" depart="218.63" departLane="best" from="7154398#0" to="7155079#2"/>
    <trip id="veh152" type="veh_passenger" depart="220.08" departLane="best" from="-7155446#0" to="-7152014#6"/>
    <trip id="veh153" type="veh_passenger" depart="221.53" departLane="best" departSpeed="max" from="-7153802" to="7155289#6"/>
    <trip id="veh154" type="veh_passenger" depart="222.97" departLane="best" from="7155047#4" to="-7155545#9"/>
    <trip id="veh155" type="veh_passenger" depart="224.42" departLane="best" from="-7154548#3" to="7155071#4"/>
    <trip id="veh156" type="veh_passenger" depart="225.87" departLane="best" from="-24391488#0" to="-7154136"/>
    <trip id="veh157" type="veh_passenger" depart="227.32" departLane="best" from="-7155047#3" to="7155294"/>
    <trip id="veh158" type="veh_passenger" depart="228.76" departLane="best" from="7154528#15" to="7154872#1"/>
    <trip id="veh159" type="veh_passenger" depart="230.21" departLane="best" from="-7154548#3" to="7154621#1"/>
    <trip id="veh160" type="veh_passenger" depart="231.66" departLane="best" from="7154425#5" to="7152043"/>
    <trip id="veh161" type="veh_passenger" depart="233.11" departLane="best" from="7155071#9" to="7154827#1"/>
    <trip id="veh162" type="veh_passenger" depart="234.56" departLane="best" from="7154151#3" to="-7154557#0"/>
    <trip id="veh163" type="veh_passenger" depart="236.00" departLane="best" from="-1218122304#1" to="7155052#2"/>
    <trip id="veh164" type="veh_passenger" depart="237.45" departLane="best" from="7154483" to="7154332"/>
    <trip id="veh165" type="veh_passenger" depart="238.90" departLane="best" departSpeed="max" from="-242645978#2" to="-7154087#0"/>
    <trip id="veh166" type="veh_passenger" depart="240.35" departLane="best" from="-7155041#17" to="7154872#2"/>
    <trip id="veh167" type="veh_passenger" depart="241.80" departLane="best" from="7155539#4" to="-7154726#13"/>
    <trip id="veh168" type="veh_passenger" depart="243.24" departLane="best" departSpeed="max" from="7152047" to="-7155538#0"/>
    <trip id="veh169" type="veh_passenger" depart="244.69" departLane="best" from="7155399#0" to="-7153610"/>
    <trip id="veh170" type="veh_passenger" depart="246.14" departLane="best" from="7155545#13" to="-7153993#3"/>
    <trip id="veh171" type="veh_passenger" depart="247.59" departLane="best" departSpeed="max" from="7155525#0" to="-7154610#0"/>
    <trip id="veh172" type="veh_passenger" depart="249.03" departLane="best" from="-7152023#0" to="1168362802#1"/>
    <trip id="veh173" type="veh_passenger" depart="250.48" departLane="best" from="7154078#5" to="7155080#0"/>
    <trip id="veh174" type="veh_passenger" depart="251.93" departLane="best" from="535047346" to="277820491#0"/>
    <trip id="veh175" type="veh_passenger" depart="253.38" departLane="best" from="-7155289#5" to="48863545#0"/>
    <trip id="veh176" type="veh_passenger" depart="254.83" departLane="best" from="7154402" to="7153995#1"/>
    <trip id="veh177" type="veh_passenger" depart="256.27" departLane="best" from="-1038301386#0" to="-7155275#1"/>
    <trip id="veh178" type="veh_passenger" depart="257.72" departLane="best" from="278870605#0" to="7154062#4"/>
    <trip id="veh179" type="veh_passenger" depart="259.17" departLane="best" from="-7154148" to="7153802"/>
    <trip id="veh180" type="veh_passenger" depart="260.62" departLane="best" from="7155166" to="-390309319#7"/>
    <trip id="veh181" type="veh_passenger" depart="262.07" departLane="best" from="7153694" to="-7155125#1"/>
    <trip id="veh182" type="veh_passenger" depart="263.51" departLane="best" from="7154005#1" to="7155041#14"/>
    <trip id="veh183" type="veh_passenger" depart="264.96" departLane="best" from="-7154743#14" to="7155547#0"/>
    <trip id="veh184" type="veh_passenger" depart="266.41" departLane="best" departSpeed="max" from="-7155407" to="-7154875#3"/>
    <trip id="veh185" type="veh_passenger" depart="267.86" departLane="best" from="-7155410" to="7153830"/>
    <trip id="veh186" type="veh_passenger" depart="269.31" departLane="best" from="7155185#0" to="70085011#0"/>
    <trip id="veh187" type="veh_passenger" depart="270.75" departLane="best" from="-7154702#2" to="280027601#0"/>
    <trip id="veh188" type="veh_passenger" depart="272.20" departLane="best" from="1024384481" to="-7154749#0"/>
    <trip id="veh189" type="veh_passenger" depart="273.65" departLane="best" from="-7155561#1" to="535042984"/>
    <trip id="veh190" type="veh_passenger" depart="275.10" departLane="best" from="7153631#1" to="242645978#2"/>
    <trip id="veh191" type="veh_passenger" depart="276.54" departLane="best" from="-1038301383" to="7154233"/>
    <trip id="veh192" type="veh_passenger" depart="277.99" departLane="best" from="22634193#0" to="7155133#1"/>
    <trip id="veh193" type="veh_passenger" depart="279.44" departLane="best" from="7154485#1" to="-7153948#6"/>
    <trip id="veh194" type="veh_passenger" depart="280.89" departLane="best" from="-535053911#0" to="278036446#0"/>
    <trip id="veh195" type="veh_passenger" depart="282.34" departLane="best" departSpeed="max" from="7151998" to="-7155154"/>
    <trip id="veh196" type="veh_passenger" depart="283.78" departLane="best" from="7154610#2" to="7154243"/>
    <trip id="veh197" type="veh_passenger" depart="285.23" departLane="best" from="7153743" to="-7154302#3"/>
    <trip id="veh198" type="veh_passenger" depart="286.68" departLane="best" from="-7154040#3" to="-25859984"/>
    <trip id="veh199" type="veh_passenger" depart="288.13" departLane="best" from="-7154304#2" to="251098207"/>
    <trip id="veh200" type="veh_passenger" depart="289.58" departLane="best" from="7154823#0" to="-415590883"/>
    <trip id="veh201" type="veh_passenger" depart="291.02" departLane="best" from="7155463#1" to="7152059"/>
    <trip id="veh202" type="veh_passenger" depart="292.47" departLane="best" from="264340388" to="-7154465#2"/>
    <trip id="veh203" type="veh_passenger" depart="293.92" departLane="best" from="-7153642#1" to="-1170008844#3"/>
    <trip id="veh204" type="veh_passenger" depart="295.37" departLane="best" from="7154216#1" to="7154335#0"/>
    <trip id="veh205" type="veh_passenger" depart="296.81" departLane="best" from="-7152014#2" to="1038301385"/>
    <trip id="veh206" type="veh_passenger" depart="298.26" departLane="best" from="-7153906#3" to="-7155464#4"/>
    <trip id="veh207" type="veh_passenger" depart="299.71" departLane="best" from="277798986#0" to="-278869176#1"/>
    <trip id="veh208" type="veh_passenger" depart="301.16" departLane="best" from="-7154347#4" to="7154743#8"/>
    <trip id="veh209" type="veh_passenger" depart="302.61" departLane="best" from="1168366258" to="7154511#0"/>
    <trip id="veh210" type="veh_passenger" depart="304.05" departLane="best" from="-7153711#5" to="-743730656#0"/>
    <trip id="veh211" type="veh_passenger" depart="305.50" departLane="best" departSpeed="max" from="502872223" to="7155417"/>
    <trip id="veh213" type="veh_passenger" depart="308.40" departLane="best" from="7154000#3" to="277798981#0"/>
    <trip id="veh214" type="veh_passenger" depart="309.85" departLane="best" from="-7154712" to="280027601#0"/>
    <trip id="veh215" type="veh_passenger" depart="311.29" departLane="best" from="7155161" to="-7154167#2"/>
    <trip id="veh216" type="veh_passenger" depart="312.74" departLane="best" departSpeed="max" from="22690301" to="-7154539"/>
    <trip id="veh217" type="veh_passenger" depart="314.19" departLane="best" from="-7154327#1" to="7153622#4"/>
    <trip id="veh218" type="veh_passenger" depart="315.64" departLane="best" from="7154304#2" to="278869174#0"/>
    <trip id="veh219" type="veh_passenger" depart="317.09" departLane="best" from="-689657929#0" to="-7154702#1"/>
    <trip id="veh220" type="veh_passenger" depart="318.53" departLane="best" from="-429370988#0" to="7154744#0"/>
    <trip id="veh221" type="veh_passenger" depart="319.98" departLane="best" from="-7154511#0" to="-7155095#1"/>
    <trip id="veh222" type="veh_passenger" depart="321.43" departLane="best" from="278870612#3" to="-7153755"/>
    <trip id="veh224" type="veh_passenger" depart="324.32" departLane="best" from="7153948#5" to="-38238000#0"/>
    <trip id="veh225" type="veh_passenger" depart="325.77" departLane="best" from="-7155449" to="280019935#0"/>
    <trip id="veh226" type="veh_passenger" depart="327.22" departLane="best" from="-7155497" to="-7154167#3"/>
    <trip id="veh227" type="veh_passenger" depart="328.67" departLane="best" from="-7155530#0" to="7155151#3"/>
    <trip id="veh228" type="veh_passenger" depart="330.12" departLane="best" departSpeed="max" from="415590882" to="7153916#2"/>
    <trip id="veh229" type="veh_passenger" depart="331.56" departLane="best" from="7154875#5" to="7154308"/>
    <trip id="veh230" type="veh_passenger" depart="333.01" departLane="best" from="-7155268" to="-120084526"/>
    <trip id="veh231" type="veh_passenger" depart="334.46" departLane="best" from="-7155162#1" to="7154255#0"/>
    <trip id="veh232" type="veh_passenger" depart="335.91" departLane="best" from="-7155516" to="7154209#0"/>
    <trip id="veh233" type="veh_passenger" depart="337.36" departLane="best" from="280008845#3" to="583055592#0"/>
    <trip id="veh234" type="veh_passenger" depart="338.80" departLane="best" from="-7154149" to="-7154271#1"/>
    <trip id="veh235" type="veh_passenger" depart="340.25" departLane="best" from="-749362631#1" to="-268560111#0"/>
    <trip id="veh236" type="veh_passenger" depart="341.70" departLane="best" from="-7155057" to="7153840"/>
    <trip id="veh237" type="veh_passenger" depart="343.15" departLane="best" from="7155430#2" to="-7153904"/>
    <trip id="veh238" type="veh_passenger" depart="344.59" departLane="best" from="-147374551#5" to="-7153688"/>
    <trip id="veh239" type="veh_passenger" depart="346.04" departLane="best" from="-7154851" to="264340385#0"/>
    <trip id="veh240" type="veh_passenger" depart="347.49" departLane="best" from="-7155345#1" to="390309318#0"/>
    <trip id="veh241" type="veh_passenger" depart="348.94" departLane="best" from="-249582980" to="-7153646#5"/>
    <trip id="veh242" type="veh_passenger" depart="350.39" departLane="best" from="-7153704" to="22805822"/>
    <trip id="veh243" type="veh_passenger" depart="351.83" departLane="best" from="-7154108#1" to="-7155111#1"/>
    <trip id="veh244" type="veh_passenger" depart="353.28" departLane="best" from="7154289#1" to="7155442#1"/>
    <trip id="veh245" type="veh_passenger" depart="354.73" departLane="best" from="7154229#4" to="7154675#0"/>
    <trip id="veh246" type="veh_passenger" depart="356.18" departLane="best" from="-7154367" to="535041931"/>
    <trip id="veh247" type="veh_passenger" depart="357.63" departLane="best" departSpeed="max" from="-22634192" to="280019925"/>